pyvvo/tests/r2_12_47_2_test_base.glm
object regulator_configuration {
  name "rcon_vreg2";
  connect_type WYE_WYE;
	Control MANUAL; // OUTPUT_VOLTAGE;
  // use these for OUTPUT_VOLTAGE mode
  // band_center 7500.000000;
  // band_width 120.000000;
  // use these for LINE_DROP_COMP mode
  // band_center 7500.000000;
  // band_width 120.000000;
  // transducer ratios only apply to LINE_DROP_COMP mode
  current_transducer_ratio 1500.000000;
  power_transducer_ratio 1.000000;
  dwell_time 30.000000;
  raise_taps 16;
  lower_taps 16;
  regulation 0.100000;
  Type B;
  compensator_r_setting_A 0.000000;
  compensator_x_setting_A 0.000000;
  // comment out the manual tap setting if using automatic control
  tap_pos_A 0;
  compensator_r_setting_B 0.000000;
  compensator_x_setting_B 0.000000;
  // comment out the manual tap setting if using automatic control
  tap_pos_B 0;
  compensator_r_setting_C 0.000000;
  compensator_x_setting_C 0.000000;
  // comment out the manual tap setting if using automatic control
  tap_pos_C 0;
}
object regulator {
  name "reg_vreg2";
  from "r2-12-47-2_node_1462";
  to "r2-12-47-2_node_90";
  phases ABC;
  configuration "rcon_vreg2";
}
object regulator_configuration {
  name "rcon_vreg1";
  connect_type WYE_WYE;
	Control MANUAL; // OUTPUT_VOLTAGE;
  // use these for OUTPUT_VOLTAGE mode
  // band_center 7500.000000;
  // band_width 120.000000;
  // use these for LINE_DROP_COMP mode
  // band_center 7500.000000;
  // band_width 120.000000;
  // transducer ratios only apply to LINE_DROP_COMP mode
  current_transducer_ratio 1500.000000;
  power_transducer_ratio 1.000000;
  dwell_time 30.000000;
  raise_taps 16;
  lower_taps 16;
  regulation 0.100000;
  Type B;
  compensator_r_setting_A 0.000000;
  compensator_x_setting_A 0.000000;
  // comment out the manual tap setting if using automatic control
  tap_pos_A 6;
  compensator_r_setting_B 0.000000;
  compensator_x_setting_B 0.000000;
  // comment out the manual tap setting if using automatic control
  tap_pos_B 6;
  compensator_r_setting_C 0.000000;
  compensator_x_setting_C 0.000000;
  // comment out the manual tap setting if using automatic control
  tap_pos_C 6;
}
object regulator {
  name "reg_vreg1";
  from "r2-12-47-2_node_253";
  to "r2-12-47-2_meter_9";
  phases ABC;
  configuration "rcon_vreg1";
}
object line_configuration {
  name "lcon_id_71_B";
  z22 2.61366+0.583910j;
  c22 2.8000;
}
object line_configuration {
  name "lcon_id_93_AC";
  z11 2.61366+0.583910j;
  c11 2.8000;
  z13 0.987913+0.757471j;
  c13 -0.6000;
  z31 0.987913+0.757471j;
  c31 -0.6000;
  z33 2.61366+0.583910j;
  c33 2.8000;
}
object line_configuration {
  name "lcon_id_72_C";
  z33 2.51679+0.448631j;
  c33 2.8000;
}
object line_configuration {
  name "lcon_id_94_ABC";
  z11 0.327154-0.677413j;
  c11 2.8000;
  z12 0.195150-0.361588j;
  c12 -0.6000;
  z13 0.195150-0.361588j;
  c13 -0.6000;
  z21 0.195150-0.361588j;
  c21 -0.6000;
  z22 0.327154-0.677413j;
  c22 2.8000;
  z23 0.195150-0.361588j;
  c23 -0.6000;
  z31 0.195150-0.361588j;
  c31 -0.6000;
  z32 0.195150-0.361588j;
  c32 -0.6000;
  z33 0.327154-0.677413j;
  c33 2.8000;
}
object line_configuration {
  name "lcon_id_91_A";
  z11 2.56002+0.425001j;
  c11 2.8000;
}
object line_configuration {
  name "lcon_id_70_C";
  z33 2.41406+0.332642j;
  c33 2.8000;
}
object line_configuration {
  name "lcon_id_90_A";
  z11 2.56002+0.425001j;
  c11 2.8000;
}
object line_configuration {
  name "lcon_id_68_ABC";
  z11 0.766195-0.753318j;
  c11 2.8000;
  z12 0.463186-0.372839j;
  c12 -0.6000;
  z13 0.463186-0.372839j;
  c13 -0.6000;
  z21 0.463186-0.372839j;
  c21 -0.6000;
  z22 0.766195-0.753318j;
  c22 2.8000;
  z23 0.463186-0.372839j;
  c23 -0.6000;
  z31 0.463186-0.372839j;
  c31 -0.6000;
  z32 0.463186-0.372839j;
  c32 -0.6000;
  z33 0.766195-0.753318j;
  c33 2.8000;
}
object line_configuration {
  name "lcon_id_69_ABC";
  z11 0.164836-0.999319j;
  c11 2.8000;
  z12 0.107810-0.564745j;
  c12 -0.6000;
  z13 0.107810-0.564745j;
  c13 -0.6000;
  z21 0.107810-0.564745j;
  c21 -0.6000;
  z22 0.164836-0.999319j;
  c22 2.8000;
  z23 0.107810-0.564745j;
  c23 -0.6000;
  z31 0.107810-0.564745j;
  c31 -0.6000;
  z32 0.107810-0.564745j;
  c32 -0.6000;
  z33 0.164836-0.999319j;
  c33 2.8000;
}
object line_configuration {
  name "lcon_id_66_ABC";
  z11 0.105331-0.911276j;
  c11 2.8000;
  z12 0.0684296-0.510892j;
  c12 -0.6000;
  z13 0.0684296-0.510892j;
  c13 -0.6000;
  z21 0.0684296-0.510892j;
  c21 -0.6000;
  z22 0.105331-0.911276j;
  c22 2.8000;
  z23 0.0684296-0.510892j;
  c23 -0.6000;
  z31 0.0684296-0.510892j;
  c31 -0.6000;
  z32 0.0684296-0.510892j;
  c32 -0.6000;
  z33 0.105331-0.911276j;
  c33 2.8000;
}
object line_configuration {
  name "lcon_id_88_ABC";
  z11 2.61366+0.583910j;
  c11 2.8000;
  z12 0.987913+0.757471j;
  c12 -0.6000;
  z13 0.987913+0.757471j;
  c13 -0.6000;
  z21 0.987913+0.757471j;
  c21 -0.6000;
  z22 2.61366+0.583910j;
  c22 2.8000;
  z23 0.987913+0.757471j;
  c23 -0.6000;
  z31 0.987913+0.757471j;
  c31 -0.6000;
  z32 0.987913+0.757471j;
  c32 -0.6000;
  z33 2.61366+0.583910j;
  c33 2.8000;
}
object line_configuration {
  name "lcon_id_67_B";
  z22 2.41406+0.332642j;
  c22 2.8000;
}
object line_configuration {
  name "lcon_id_89_ABC";
  z11 0.105331-0.911276j;
  c11 2.8000;
  z12 0.0684296-0.510892j;
  c12 -0.6000;
  z13 0.0684296-0.510892j;
  c13 -0.6000;
  z21 0.0684296-0.510892j;
  c21 -0.6000;
  z22 0.105331-0.911276j;
  c22 2.8000;
  z23 0.0684296-0.510892j;
  c23 -0.6000;
  z31 0.0684296-0.510892j;
  c31 -0.6000;
  z32 0.0684296-0.510892j;
  c32 -0.6000;
  z33 0.105331-0.911276j;
  c33 2.8000;
}
object line_configuration {
  name "lcon_id_100_A";
  z11 2.51679+0.448631j;
  c11 2.8000;
}
object line_configuration {
  name "lcon_id_64_C";
  z33 2.61366+0.583910j;
  c33 2.8000;
}
object line_configuration {
  name "lcon_id_86_B";
  z22 0.327154-0.677413j;
  c22 2.8000;
}
object line_configuration {
  name "lcon_id_65_C";
  z33 2.61366+0.583910j;
  c33 2.8000;
}
object line_configuration {
  name "lcon_id_87_B";
  z22 1.33366-0.180953j;
  c22 2.8000;
}
object line_configuration {
  name "lcon_id_62_A";
  z11 2.51679+0.448631j;
  c11 2.8000;
}
object line_configuration {
  name "lcon_id_84_C";
  z33 2.51679+0.448631j;
  c33 2.8000;
}
object line_configuration {
  name "lcon_id_63_A";
  z11 0.327154-0.677413j;
  c11 2.8000;
}
object line_configuration {
  name "lcon_id_85_C";
  z33 2.51679+0.448631j;
  c33 2.8000;
}
object triplex_line_configuration {
  name "tcon_id_838_12";
  z11 0.695748+0.824819j;
  z12 0.215735+0.367950j;
  z21 0.215735+0.367950j;
  z22 0.695748+0.824819j;
}
object line_configuration {
  name "lcon_id_60_A";
  z11 2.61366+0.583910j;
  c11 2.8000;
}
object line_configuration {
  name "lcon_id_82_ABC";
  z11 0.174280-0.814259j;
  c11 2.8000;
  z12 0.108578-0.449533j;
  c12 -0.6000;
  z13 0.108578-0.449533j;
  c13 -0.6000;
  z21 0.108578-0.449533j;
  c21 -0.6000;
  z22 0.174280-0.814259j;
  c22 2.8000;
  z23 0.108578-0.449533j;
  c23 -0.6000;
  z31 0.108578-0.449533j;
  c31 -0.6000;
  z32 0.108578-0.449533j;
  c32 -0.6000;
  z33 0.174280-0.814259j;
  c33 2.8000;
}
object line_configuration {
  name "lcon_id_61_ABC";
  z11 0.658470-0.777872j;
  c11 2.8000;
  z12 0.400463-0.398453j;
  c12 -0.6000;
  z13 0.400463-0.398453j;
  c13 -0.6000;
  z21 0.400463-0.398453j;
  c21 -0.6000;
  z22 0.658470-0.777872j;
  c22 2.8000;
  z23 0.400463-0.398453j;
  c23 -0.6000;
  z31 0.400463-0.398453j;
  c31 -0.6000;
  z32 0.400463-0.398453j;
  c32 -0.6000;
  z33 0.658470-0.777872j;
  c33 2.8000;
}
object line_configuration {
  name "lcon_id_80_AB";
  z11 2.61366+0.583910j;
  c11 2.8000;
  z12 0.987913+0.757471j;
  c12 -0.6000;
  z21 0.987913+0.757471j;
  c21 -0.6000;
  z22 2.61366+0.583910j;
  c22 2.8000;
}
object line_configuration {
  name "lcon_id_81_ABC";
  z11 0.174280-0.814259j;
  c11 2.8000;
  z12 0.108578-0.449533j;
  c12 -0.6000;
  z13 0.108578-0.449533j;
  c13 -0.6000;
  z21 0.108578-0.449533j;
  c21 -0.6000;
  z22 0.174280-0.814259j;
  c22 2.8000;
  z23 0.108578-0.449533j;
  c23 -0.6000;
  z31 0.108578-0.449533j;
  c31 -0.6000;
  z32 0.108578-0.449533j;
  c32 -0.6000;
  z33 0.174280-0.814259j;
  c33 2.8000;
}
object line_configuration {
  name "lcon_id_79_B";
  z22 2.61366+0.583910j;
  c22 2.8000;
}
object line_configuration {
  name "lcon_id_77_A";
  z11 2.56002+0.425001j;
  c11 2.8000;
}
object line_configuration {
  name "lcon_id_99_C";
  z33 0.327154-0.677413j;
  c33 2.8000;
}
object line_configuration {
  name "lcon_id_78_A";
  z11 2.56002+0.425001j;
  c11 2.8000;
}
object line_configuration {
  name "lcon_id_75_ABC";
  z11 2.61366+0.583910j;
  c11 2.8000;
  z12 0.987913+0.757471j;
  c12 -0.6000;
  z13 0.987913+0.757471j;
  c13 -0.6000;
  z21 0.987913+0.757471j;
  c21 -0.6000;
  z22 2.61366+0.583910j;
  c22 2.8000;
  z23 0.987913+0.757471j;
  c23 -0.6000;
  z31 0.987913+0.757471j;
  c31 -0.6000;
  z32 0.987913+0.757471j;
  c32 -0.6000;
  z33 2.61366+0.583910j;
  c33 2.8000;
}
object line_configuration {
  name "lcon_id_97_B";
  z22 2.51679+0.448631j;
  c22 2.8000;
}
object line_configuration {
  name "lcon_id_76_ABC";
  z11 1.33366-0.180953j;
  c11 2.8000;
  z12 0.695643+0.0364694j;
  c12 -0.6000;
  z13 0.695643+0.0364694j;
  c13 -0.6000;
  z21 0.695643+0.0364694j;
  c21 -0.6000;
  z22 1.33366-0.180953j;
  c22 2.8000;
  z23 0.695643+0.0364694j;
  c23 -0.6000;
  z31 0.695643+0.0364694j;
  c31 -0.6000;
  z32 0.695643+0.0364694j;
  c32 -0.6000;
  z33 1.33366-0.180953j;
  c33 2.8000;
}
object line_configuration {
  name "lcon_id_73_BC";
  z22 2.61366+0.583910j;
  c22 2.8000;
  z23 0.987913+0.757471j;
  c23 -0.6000;
  z32 0.987913+0.757471j;
  c32 -0.6000;
  z33 2.61366+0.583910j;
  c33 2.8000;
}
object line_configuration {
  name "lcon_id_95_B";
  z22 2.61366+0.583910j;
  c22 2.8000;
}
object line_configuration {
  name "lcon_id_96_C";
  z33 1.80572-0.105753j;
  c33 2.8000;
}
object transformer_configuration {
  name "xcon_xfcode_xf1_padmount_as_25";
  power_rating 25.000;
  powerA_rating 25.000;
  powerB_rating 0.0;
  powerC_rating 0.0;
  primary_voltage 7200.000;
  secondary_voltage 120.000;
  connect_type SINGLE_PHASE_CENTER_TAPPED;
  impedance 0.00800000+0.0144960j;
  impedance1 0.0160000+0.00724800j;
  impedance2 0.0160000+0.00724800j;
  shunt_reactance 51.813472;
  shunt_resistance 192.307692;
}
object transformer_configuration {
  name "xcon_xfcode_xf3_poletop_abcn_75";
  power_rating 75.000;
  primary_voltage 7199.558;
  secondary_voltage 120.089;
  connect_type WYE_WYE;
  resistance 0.016000;
  reactance 0.024200;
  shunt_reactance 30.864198;
  shunt_resistance 158.730159;
}
object transformer_configuration {
  name "xcon_xfcode_xf1_poletop_bs_10";
  power_rating 10.000;
  powerA_rating 0.0;
  powerB_rating 10.000;
  powerC_rating 0.0;
  primary_voltage 7200.000;
  secondary_voltage 120.000;
  connect_type SINGLE_PHASE_CENTER_TAPPED;
  impedance 0.00950000+0.0124800j;
  impedance1 0.0190000+0.00624000j;
  impedance2 0.0190000+0.00624000j;
  shunt_reactance 34.246575;
  shunt_resistance 147.058824;
}
object transformer_configuration {
  name "xcon_xfcode_xf3_padmount_abcn_500";
  power_rating 500.000;
  primary_voltage 7199.558;
  secondary_voltage 277.128;
  connect_type WYE_WYE;
  resistance 0.011000;
  reactance 0.048800;
  shunt_reactance 44.247788;
  shunt_resistance 222.222222;
}
object transformer_configuration {
  name "xcon_xfcode_xf1_poletop_cs_250";
  power_rating 250.000;
  powerA_rating 0.0;
  powerB_rating 0.0;
  powerC_rating 250.000;
  primary_voltage 7200.000;
  secondary_voltage 120.000;
  connect_type SINGLE_PHASE_CENTER_TAPPED;
  impedance 0.00550000+0.0369600j;
  impedance1 0.0110000+0.0184800j;
  impedance2 0.0110000+0.0184800j;
  shunt_reactance 55.248619;
  shunt_resistance 277.777778;
}
object transformer_configuration {
  name "xcon_xfcode_xf1_padmount_as_167";
  power_rating 167.000;
  powerA_rating 167.000;
  powerB_rating 0.0;
  powerC_rating 0.0;
  primary_voltage 7200.000;
  secondary_voltage 120.000;
  connect_type SINGLE_PHASE_CENTER_TAPPED;
  impedance 0.00575000+0.0265920j;
  impedance1 0.0115000+0.0132960j;
  impedance2 0.0115000+0.0132960j;
  shunt_reactance 60.240964;
  shunt_resistance 263.157895;
}
object transformer_configuration {
  name "xcon_xfcode_xf1_poletop_cs_15";
  power_rating 15.000;
  powerA_rating 0.0;
  powerB_rating 0.0;
  powerC_rating 15.000;
  primary_voltage 7200.000;
  secondary_voltage 120.000;
  connect_type SINGLE_PHASE_CENTER_TAPPED;
  impedance 0.00850000+0.0141120j;
  impedance1 0.0170000+0.00705600j;
  impedance2 0.0170000+0.00705600j;
  shunt_reactance 39.525692;
  shunt_resistance 166.666667;
}
object transformer_configuration {
  name "xcon_xfcode_xf1_poletop_cs_5";
  power_rating 5.000;
  powerA_rating 0.0;
  powerB_rating 0.0;
  powerC_rating 5.000;
  primary_voltage 7200.000;
  secondary_voltage 120.000;
  connect_type SINGLE_PHASE_CENTER_TAPPED;
  impedance 0.0105000+0.0146880j;
  impedance1 0.0210000+0.00734400j;
  impedance2 0.0210000+0.00734400j;
  shunt_reactance 29.585799;
  shunt_resistance 111.111111;
}
object transformer_configuration {
  name "xcon_xfcode_xf1_poletop_bs_50";
  power_rating 50.000;
  powerA_rating 0.0;
  powerB_rating 50.000;
  powerC_rating 0.0;
  primary_voltage 7200.000;
  secondary_voltage 120.000;
  connect_type SINGLE_PHASE_CENTER_TAPPED;
  impedance 0.00650000+0.0169920j;
  impedance1 0.0130000+0.00849600j;
  impedance2 0.0130000+0.00849600j;
  shunt_reactance 64.935065;
  shunt_resistance 222.222222;
}
object transformer_configuration {
  name "xcon_xfcode_xf1_poletop_cs_50";
  power_rating 50.000;
  powerA_rating 0.0;
  powerB_rating 0.0;
  powerC_rating 50.000;
  primary_voltage 7200.000;
  secondary_voltage 120.000;
  connect_type SINGLE_PHASE_CENTER_TAPPED;
  impedance 0.00650000+0.0169920j;
  impedance1 0.0130000+0.00849600j;
  impedance2 0.0130000+0.00849600j;
  shunt_reactance 64.935065;
  shunt_resistance 222.222222;
}
object transformer_configuration {
  name "xcon_xfcode_xf1_padmount_bs_75";
  power_rating 75.000;
  powerA_rating 0.0;
  powerB_rating 75.000;
  powerC_rating 0.0;
  primary_voltage 7200.000;
  secondary_voltage 120.000;
  connect_type SINGLE_PHASE_CENTER_TAPPED;
  impedance 0.00625000+0.0162240j;
  impedance1 0.0125000+0.00811200j;
  impedance2 0.0125000+0.00811200j;
  shunt_reactance 67.114094;
  shunt_resistance 238.095238;
}
object transformer_configuration {
  name "xcon_xfcode_xf1_poletop_bs_167";
  power_rating 167.000;
  powerA_rating 0.0;
  powerB_rating 167.000;
  powerC_rating 0.0;
  primary_voltage 7200.000;
  secondary_voltage 120.000;
  connect_type SINGLE_PHASE_CENTER_TAPPED;
  impedance 0.00575000+0.0265920j;
  impedance1 0.0115000+0.0132960j;
  impedance2 0.0115000+0.0132960j;
  shunt_reactance 60.240964;
  shunt_resistance 263.157895;
}
object transformer_configuration {
  name "xcon_xfcode_xf1_poletop_as_37p5";
  power_rating 37.500;
  powerA_rating 37.500;
  powerB_rating 0.0;
  powerC_rating 0.0;
  primary_voltage 7200.000;
  secondary_voltage 120.000;
  connect_type SINGLE_PHASE_CENTER_TAPPED;
  impedance 0.00725000+0.0158400j;
  impedance1 0.0145000+0.00792000j;
  impedance2 0.0145000+0.00792000j;
  shunt_reactance 57.471264;
  shunt_resistance 212.765957;
}
object transformer_configuration {
  name "xcon_xfcode_xf1_poletop_bs_15";
  power_rating 15.000;
  powerA_rating 0.0;
  powerB_rating 15.000;
  powerC_rating 0.0;
  primary_voltage 7200.000;
  secondary_voltage 120.000;
  connect_type SINGLE_PHASE_CENTER_TAPPED;
  impedance 0.00850000+0.0141120j;
  impedance1 0.0170000+0.00705600j;
  impedance2 0.0170000+0.00705600j;
  shunt_reactance 39.525692;
  shunt_resistance 166.666667;
}
object transformer_configuration {
  name "xcon_xfcode_xf1_poletop_cs_100";
  power_rating 100.000;
  powerA_rating 0.0;
  powerB_rating 0.0;
  powerC_rating 100.000;
  primary_voltage 7200.000;
  secondary_voltage 120.000;
  connect_type SINGLE_PHASE_CENTER_TAPPED;
  impedance 0.00600000+0.0210240j;
  impedance1 0.0120000+0.0105120j;
  impedance2 0.0120000+0.0105120j;
  shunt_reactance 68.965517;
  shunt_resistance 250.000000;
}
object transformer_configuration {
  name "xcon_xfcode_xf1_padmount_bs_5";
  power_rating 5.000;
  powerA_rating 0.0;
  powerB_rating 5.000;
  powerC_rating 0.0;
  primary_voltage 7200.000;
  secondary_voltage 120.000;
  connect_type SINGLE_PHASE_CENTER_TAPPED;
  impedance 0.0105000+0.0146880j;
  impedance1 0.0210000+0.00734400j;
  impedance2 0.0210000+0.00734400j;
  shunt_reactance 29.585799;
  shunt_resistance 111.111111;
}
object transformer_configuration {
  name "xcon_xfcode_xf1_padmount_as_10";
  power_rating 10.000;
  powerA_rating 10.000;
  powerB_rating 0.0;
  powerC_rating 0.0;
  primary_voltage 7200.000;
  secondary_voltage 120.000;
  connect_type SINGLE_PHASE_CENTER_TAPPED;
  impedance 0.00950000+0.0124800j;
  impedance1 0.0190000+0.00624000j;
  impedance2 0.0190000+0.00624000j;
  shunt_reactance 34.246575;
  shunt_resistance 147.058824;
}
object transformer_configuration {
  name "xcon_xfcode_xf1_poletop_bs_25";
  power_rating 25.000;
  powerA_rating 0.0;
  powerB_rating 25.000;
  powerC_rating 0.0;
  primary_voltage 7200.000;
  secondary_voltage 120.000;
  connect_type SINGLE_PHASE_CENTER_TAPPED;
  impedance 0.00800000+0.0144960j;
  impedance1 0.0160000+0.00724800j;
  impedance2 0.0160000+0.00724800j;
  shunt_reactance 51.813472;
  shunt_resistance 192.307692;
}
object transformer_configuration {
  name "xcon_xfcode_xf1_poletop_bs_37p5";
  power_rating 37.500;
  powerA_rating 0.0;
  powerB_rating 37.500;
  powerC_rating 0.0;
  primary_voltage 7200.000;
  secondary_voltage 120.000;
  connect_type SINGLE_PHASE_CENTER_TAPPED;
  impedance 0.00725000+0.0158400j;
  impedance1 0.0145000+0.00792000j;
  impedance2 0.0145000+0.00792000j;
  shunt_reactance 57.471264;
  shunt_resistance 212.765957;
}
object transformer_configuration {
  name "xcon_xfcode_xf1_poletop_cs_25";
  power_rating 25.000;
  powerA_rating 0.0;
  powerB_rating 0.0;
  powerC_rating 25.000;
  primary_voltage 7200.000;
  secondary_voltage 120.000;
  connect_type SINGLE_PHASE_CENTER_TAPPED;
  impedance 0.00800000+0.0144960j;
  impedance1 0.0160000+0.00724800j;
  impedance2 0.0160000+0.00724800j;
  shunt_reactance 51.813472;
  shunt_resistance 192.307692;
}
object transformer_configuration {
  name "xcon_xfcode_xf1_padmount_as_15";
  power_rating 15.000;
  powerA_rating 15.000;
  powerB_rating 0.0;
  powerC_rating 0.0;
  primary_voltage 7200.000;
  secondary_voltage 120.000;
  connect_type SINGLE_PHASE_CENTER_TAPPED;
  impedance 0.00850000+0.0141120j;
  impedance1 0.0170000+0.00705600j;
  impedance2 0.0170000+0.00705600j;
  shunt_reactance 39.525692;
  shunt_resistance 166.666667;
}
object transformer_configuration {
  name "xcon_xfcode_xf1_poletop_bs_250";
  power_rating 250.000;
  powerA_rating 0.0;
  powerB_rating 250.000;
  powerC_rating 0.0;
  primary_voltage 7200.000;
  secondary_voltage 120.000;
  connect_type SINGLE_PHASE_CENTER_TAPPED;
  impedance 0.00550000+0.0369600j;
  impedance1 0.0110000+0.0184800j;
  impedance2 0.0110000+0.0184800j;
  shunt_reactance 55.248619;
  shunt_resistance 277.777778;
}
object transformer_configuration {
  name "xcon_xfcode_xf1_poletop_as_75";
  power_rating 75.000;
  powerA_rating 75.000;
  powerB_rating 0.0;
  powerC_rating 0.0;
  primary_voltage 7200.000;
  secondary_voltage 120.000;
  connect_type SINGLE_PHASE_CENTER_TAPPED;
  impedance 0.00625000+0.0162240j;
  impedance1 0.0125000+0.00811200j;
  impedance2 0.0125000+0.00811200j;
  shunt_reactance 67.114094;
  shunt_resistance 238.095238;
}
object transformer_configuration {
  name "xcon_xfcode_xf1_padmount_as_50";
  power_rating 50.000;
  powerA_rating 50.000;
  powerB_rating 0.0;
  powerC_rating 0.0;
  primary_voltage 7200.000;
  secondary_voltage 120.000;
  connect_type SINGLE_PHASE_CENTER_TAPPED;
  impedance 0.00650000+0.0169920j;
  impedance1 0.0130000+0.00849600j;
  impedance2 0.0130000+0.00849600j;
  shunt_reactance 64.935065;
  shunt_resistance 222.222222;
}
object transformer_configuration {
  name "xcon_xfcode_xf1_poletop_cn_50";
  power_rating 50.000;
  powerA_rating 0.0;
  powerB_rating 0.0;
  powerC_rating 50.000;
  primary_voltage 12470.766;
  secondary_voltage 207.846;
  connect_type WYE_WYE;
  resistance 0.016000;
  reactance 0.024200;
  shunt_reactance 30.864198;
  shunt_resistance 158.730159;
}
object transformer_configuration {
  name "xcon_xfcode_xf1_poletop_as_167";
  power_rating 167.000;
  powerA_rating 167.000;
  powerB_rating 0.0;
  powerC_rating 0.0;
  primary_voltage 7200.000;
  secondary_voltage 120.000;
  connect_type SINGLE_PHASE_CENTER_TAPPED;
  impedance 0.00575000+0.0265920j;
  impedance1 0.0115000+0.0132960j;
  impedance2 0.0115000+0.0132960j;
  shunt_reactance 60.240964;
  shunt_resistance 263.157895;
}
object transformer_configuration {
  name "xcon_xfcode_xf1_padmount_as_5";
  power_rating 5.000;
  powerA_rating 5.000;
  powerB_rating 0.0;
  powerC_rating 0.0;
  primary_voltage 7200.000;
  secondary_voltage 120.000;
  connect_type SINGLE_PHASE_CENTER_TAPPED;
  impedance 0.0105000+0.0146880j;
  impedance1 0.0210000+0.00734400j;
  impedance2 0.0210000+0.00734400j;
  shunt_reactance 29.585799;
  shunt_resistance 111.111111;
}
object transformer_configuration {
  name "xcon_xfcode_xf1_poletop_bs_75";
  power_rating 75.000;
  powerA_rating 0.0;
  powerB_rating 75.000;
  powerC_rating 0.0;
  primary_voltage 7200.000;
  secondary_voltage 120.000;
  connect_type SINGLE_PHASE_CENTER_TAPPED;
  impedance 0.00625000+0.0162240j;
  impedance1 0.0125000+0.00811200j;
  impedance2 0.0125000+0.00811200j;
  shunt_reactance 67.114094;
  shunt_resistance 238.095238;
}
object transformer_configuration {
  name "xcon_xfcode_xf1_padmount_cs_50";
  power_rating 50.000;
  powerA_rating 0.0;
  powerB_rating 0.0;
  powerC_rating 50.000;
  primary_voltage 7200.000;
  secondary_voltage 120.000;
  connect_type SINGLE_PHASE_CENTER_TAPPED;
  impedance 0.00650000+0.0169920j;
  impedance1 0.0130000+0.00849600j;
  impedance2 0.0130000+0.00849600j;
  shunt_reactance 64.935065;
  shunt_resistance 222.222222;
}
object transformer_configuration {
  name "xcon_xfcode_xf1_padmount_as_100";
  power_rating 100.000;
  powerA_rating 100.000;
  powerB_rating 0.0;
  powerC_rating 0.0;
  primary_voltage 7200.000;
  secondary_voltage 120.000;
  connect_type SINGLE_PHASE_CENTER_TAPPED;
  impedance 0.00600000+0.0210240j;
  impedance1 0.0120000+0.0105120j;
  impedance2 0.0120000+0.0105120j;
  shunt_reactance 68.965517;
  shunt_resistance 250.000000;
}
object transformer_configuration {
  name "xcon_xfcode_xf3_padmount_abcn_112p5";
  power_rating 112.500;
  primary_voltage 7199.558;
  secondary_voltage 277.128;
  connect_type WYE_WYE;
  resistance 0.014500;
  reactance 0.028500;
  shunt_reactance 33.444816;
  shunt_resistance 169.491525;
}
object transformer_configuration {
  name "xcon_xfcode_xf1_padmount_cs_15";
  power_rating 15.000;
  powerA_rating 0.0;
  powerB_rating 0.0;
  powerC_rating 15.000;
  primary_voltage 7200.000;
  secondary_voltage 120.000;
  connect_type SINGLE_PHASE_CENTER_TAPPED;
  impedance 0.00850000+0.0141120j;
  impedance1 0.0170000+0.00705600j;
  impedance2 0.0170000+0.00705600j;
  shunt_reactance 39.525692;
  shunt_resistance 166.666667;
}
object transformer_configuration {
  name "xcon_xfcode_xf1_poletop_as_5";
  power_rating 5.000;
  powerA_rating 5.000;
  powerB_rating 0.0;
  powerC_rating 0.0;
  primary_voltage 7200.000;
  secondary_voltage 120.000;
  connect_type SINGLE_PHASE_CENTER_TAPPED;
  impedance 0.0105000+0.0146880j;
  impedance1 0.0210000+0.00734400j;
  impedance2 0.0210000+0.00734400j;
  shunt_reactance 29.585799;
  shunt_resistance 111.111111;
}
object transformer_configuration {
  name "xcon_xfcode_xf1_poletop_as_25";
  power_rating 25.000;
  powerA_rating 25.000;
  powerB_rating 0.0;
  powerC_rating 0.0;
  primary_voltage 7200.000;
  secondary_voltage 120.000;
  connect_type SINGLE_PHASE_CENTER_TAPPED;
  impedance 0.00800000+0.0144960j;
  impedance1 0.0160000+0.00724800j;
  impedance2 0.0160000+0.00724800j;
  shunt_reactance 51.813472;
  shunt_resistance 192.307692;
}
object transformer_configuration {
  name "xcon_xfcode_xf1_poletop_cs_75";
  power_rating 75.000;
  powerA_rating 0.0;
  powerB_rating 0.0;
  powerC_rating 75.000;
  primary_voltage 7200.000;
  secondary_voltage 120.000;
  connect_type SINGLE_PHASE_CENTER_TAPPED;
  impedance 0.00625000+0.0162240j;
  impedance1 0.0125000+0.00811200j;
  impedance2 0.0125000+0.00811200j;
  shunt_reactance 67.114094;
  shunt_resistance 238.095238;
}
object transformer_configuration {
  name "xcon_xfcode_xf1_padmount_bs_50";
  power_rating 50.000;
  powerA_rating 0.0;
  powerB_rating 50.000;
  powerC_rating 0.0;
  primary_voltage 7200.000;
  secondary_voltage 120.000;
  connect_type SINGLE_PHASE_CENTER_TAPPED;
  impedance 0.00650000+0.0169920j;
  impedance1 0.0130000+0.00849600j;
  impedance2 0.0130000+0.00849600j;
  shunt_reactance 64.935065;
  shunt_resistance 222.222222;
}
object transformer_configuration {
  name "xcon_xfcode_xf1_poletop_bs_100";
  power_rating 100.000;
  powerA_rating 0.0;
  powerB_rating 100.000;
  powerC_rating 0.0;
  primary_voltage 7200.000;
  secondary_voltage 120.000;
  connect_type SINGLE_PHASE_CENTER_TAPPED;
  impedance 0.00600000+0.0210240j;
  impedance1 0.0120000+0.0105120j;
  impedance2 0.0120000+0.0105120j;
  shunt_reactance 68.965517;
  shunt_resistance 250.000000;
}
object transformer_configuration {
  name "xcon_xfcode_xf1_poletop_cs_167";
  power_rating 167.000;
  powerA_rating 0.0;
  powerB_rating 0.0;
  powerC_rating 167.000;
  primary_voltage 7200.000;
  secondary_voltage 120.000;
  connect_type SINGLE_PHASE_CENTER_TAPPED;
  impedance 0.00575000+0.0265920j;
  impedance1 0.0115000+0.0132960j;
  impedance2 0.0115000+0.0132960j;
  shunt_reactance 60.240964;
  shunt_resistance 263.157895;
}
object transformer_configuration {
  name "xcon_xfcode_xf1_poletop_bs_5";
  power_rating 5.000;
  powerA_rating 0.0;
  powerB_rating 5.000;
  powerC_rating 0.0;
  primary_voltage 7200.000;
  secondary_voltage 120.000;
  connect_type SINGLE_PHASE_CENTER_TAPPED;
  impedance 0.0105000+0.0146880j;
  impedance1 0.0210000+0.00734400j;
  impedance2 0.0210000+0.00734400j;
  shunt_reactance 29.585799;
  shunt_resistance 111.111111;
}
object transformer_configuration {
  name "xcon_xfcode_xf1_padmount_cs_25";
  power_rating 25.000;
  powerA_rating 0.0;
  powerB_rating 0.0;
  powerC_rating 25.000;
  primary_voltage 7200.000;
  secondary_voltage 120.000;
  connect_type SINGLE_PHASE_CENTER_TAPPED;
  impedance 0.00800000+0.0144960j;
  impedance1 0.0160000+0.00724800j;
  impedance2 0.0160000+0.00724800j;
  shunt_reactance 51.813472;
  shunt_resistance 192.307692;
}
object transformer_configuration {
  name "xcon_xfcode_xf1_padmount_cs_37p5";
  power_rating 37.500;
  powerA_rating 0.0;
  powerB_rating 0.0;
  powerC_rating 37.500;
  primary_voltage 7200.000;
  secondary_voltage 120.000;
  connect_type SINGLE_PHASE_CENTER_TAPPED;
  impedance 0.00725000+0.0158400j;
  impedance1 0.0145000+0.00792000j;
  impedance2 0.0145000+0.00792000j;
  shunt_reactance 57.471264;
  shunt_resistance 212.765957;
}
object transformer_configuration {
  name "xcon_xfcode_xf3_poletop_abcn_150";
  power_rating 150.000;
  primary_voltage 7199.558;
  secondary_voltage 277.128;
  connect_type WYE_WYE;
  resistance 0.013000;
  reactance 0.032500;
  shunt_reactance 36.363636;
  shunt_resistance 185.185185;
}
object transformer_configuration {
  name "xcon_xfcode_xf1_poletop_as_15";
  power_rating 15.000;
  powerA_rating 15.000;
  powerB_rating 0.0;
  powerC_rating 0.0;
  primary_voltage 7200.000;
  secondary_voltage 120.000;
  connect_type SINGLE_PHASE_CENTER_TAPPED;
  impedance 0.00850000+0.0141120j;
  impedance1 0.0170000+0.00705600j;
  impedance2 0.0170000+0.00705600j;
  shunt_reactance 39.525692;
  shunt_resistance 166.666667;
}
object transformer_configuration {
  name "xcon_xfcode_xf3_poletop_abcn_300";
  power_rating 300.000;
  primary_voltage 7199.558;
  secondary_voltage 277.128;
  connect_type WYE_WYE;
  resistance 0.013000;
  reactance 0.048300;
  shunt_reactance 44.444444;
  shunt_resistance 217.391304;
}
object transformer_configuration {
  name "xcon_xfcode_xf1_poletop_as_10";
  power_rating 10.000;
  powerA_rating 10.000;
  powerB_rating 0.0;
  powerC_rating 0.0;
  primary_voltage 7200.000;
  secondary_voltage 120.000;
  connect_type SINGLE_PHASE_CENTER_TAPPED;
  impedance 0.00950000+0.0124800j;
  impedance1 0.0190000+0.00624000j;
  impedance2 0.0190000+0.00624000j;
  shunt_reactance 34.246575;
  shunt_resistance 147.058824;
}
object transformer_configuration {
  name "xcon_xfcode_xf3_poletop_abcn_500";
  power_rating 500.000;
  primary_voltage 7199.558;
  secondary_voltage 277.128;
  connect_type WYE_WYE;
  resistance 0.011000;
  reactance 0.048800;
  shunt_reactance 44.247788;
  shunt_resistance 222.222222;
}
object transformer_configuration {
  name "xcon_xfcode_xf1_poletop_as_50";
  power_rating 50.000;
  powerA_rating 50.000;
  powerB_rating 0.0;
  powerC_rating 0.0;
  primary_voltage 7200.000;
  secondary_voltage 120.000;
  connect_type SINGLE_PHASE_CENTER_TAPPED;
  impedance 0.00650000+0.0169920j;
  impedance1 0.0130000+0.00849600j;
  impedance2 0.0130000+0.00849600j;
  shunt_reactance 64.935065;
  shunt_resistance 222.222222;
}
object transformer_configuration {
  name "xcon_xfcode_xf1_padmount_bs_25";
  power_rating 25.000;
  powerA_rating 0.0;
  powerB_rating 25.000;
  powerC_rating 0.0;
  primary_voltage 7200.000;
  secondary_voltage 120.000;
  connect_type SINGLE_PHASE_CENTER_TAPPED;
  impedance 0.00800000+0.0144960j;
  impedance1 0.0160000+0.00724800j;
  impedance2 0.0160000+0.00724800j;
  shunt_reactance 51.813472;
  shunt_resistance 192.307692;
}
object transformer_configuration {
  name "xcon_xfcode_xf1_padmount_cs_5";
  power_rating 5.000;
  powerA_rating 0.0;
  powerB_rating 0.0;
  powerC_rating 5.000;
  primary_voltage 7200.000;
  secondary_voltage 120.000;
  connect_type SINGLE_PHASE_CENTER_TAPPED;
  impedance 0.0105000+0.0146880j;
  impedance1 0.0210000+0.00734400j;
  impedance2 0.0210000+0.00734400j;
  shunt_reactance 29.585799;
  shunt_resistance 111.111111;
}
object transformer_configuration {
  name "xcon_xfcode_xf1_poletop_as_100";
  power_rating 100.000;
  powerA_rating 100.000;
  powerB_rating 0.0;
  powerC_rating 0.0;
  primary_voltage 7200.000;
  secondary_voltage 120.000;
  connect_type SINGLE_PHASE_CENTER_TAPPED;
  impedance 0.00600000+0.0210240j;
  impedance1 0.0120000+0.0105120j;
  impedance2 0.0120000+0.0105120j;
  shunt_reactance 68.965517;
  shunt_resistance 250.000000;
}
object capacitor {
  name "cap_r2-12-47-2_cap_3";
  parent "r2-12-47-2_cap_3";
  phases ABCN;
  phases_connected ABCN;
  cap_nominal_voltage 7200.14;
  capacitor_A 400000.00;
  switchA CLOSED;
  capacitor_B 400000.00;
  switchB CLOSED;
  capacitor_C 400000.00;
  switchC CLOSED;
  control MANUAL; // VOLT;
  voltage_set_low 7100.00;
  voltage_set_high 7300.00;
  pt_phase C;
	control_level BANK;
  dwell_time 30.00;
}
object capacitor {
  name "cap_r2-12-47-2_cap_4";
  parent "r2-12-47-2_cap_4";
  phases ABCN;
  phases_connected ABCN;
  cap_nominal_voltage 7200.14;
  capacitor_A 400000.00;
  switchA CLOSED;
  capacitor_B 400000.00;
  switchB CLOSED;
  capacitor_C 400000.00;
  switchC CLOSED;
  control MANUAL; // VOLT;
  voltage_set_low 7100.00;
  voltage_set_high 7300.00;
  pt_phase C;
	control_level BANK;
  dwell_time 30.00;
}
object capacitor {
  name "cap_r2-12-47-2_cap_1";
  parent "r2-12-47-2_cap_1";
  phases ABCN;
  phases_connected ABCN;
  cap_nominal_voltage 7200.14;
  capacitor_A 400000.00;
  switchA CLOSED;
  capacitor_B 400000.00;
  switchB CLOSED;
  capacitor_C 400000.00;
  switchC CLOSED;
  control MANUAL; // VOLT;
  voltage_set_low 7100.00;
  voltage_set_high 7300.00;
  pt_phase C;
	control_level BANK;
  dwell_time 30.00;
}
object capacitor {
  name "cap_r2-12-47-2_cap_2";
  parent "r2-12-47-2_cap_2";
  phases ABCN;
  phases_connected ABCN;
  cap_nominal_voltage 7200.14;
  capacitor_A 300000.00;
  switchA CLOSED;
  capacitor_B 300000.00;
  switchB CLOSED;
  capacitor_C 300000.00;
  switchC CLOSED;
  control MANUAL; // VOLT;
  voltage_set_low 7100.00;
  voltage_set_high 7300.00;
  pt_phase C;
	control_level BANK;
  dwell_time 30.00;
}
object triplex_line {
  name "tpx_r2-12-47-2_tl_151";
  from "r2-12-47-2_tn_151";
  to "r2-12-47-2_tm_151";
  phases AS;
  length 30.0005;
  configuration "tcon_id_838_12";
}
object triplex_line {
  name "tpx_r2-12-47-2_tl_152";
  from "r2-12-47-2_tn_152";
  to "r2-12-47-2_tm_152";
  phases BS;
  length 30.0005;
  configuration "tcon_id_838_12";
}
object triplex_line {
  name "tpx_r2-12-47-2_tl_150";
  from "r2-12-47-2_tn_150";
  to "r2-12-47-2_tm_150";
  phases CS;
  length 30.0005;
  configuration "tcon_id_838_12";
}
object triplex_line {
  name "tpx_r2-12-47-2_tl_148";
  from "r2-12-47-2_tn_148";
  to "r2-12-47-2_tm_148";
  phases CS;
  length 30.0005;
  configuration "tcon_id_838_12";
}
object triplex_line {
  name "tpx_r2-12-47-2_tl_149";
  from "r2-12-47-2_tn_149";
  to "r2-12-47-2_tm_149";
  phases BS;
  length 30.0005;
  configuration "tcon_id_838_12";
}
object triplex_line {
  name "tpx_r2-12-47-2_tl_146";
  from "r2-12-47-2_tn_146";
  to "r2-12-47-2_tm_146";
  phases AS;
  length 30.0005;
  configuration "tcon_id_838_12";
}
object triplex_line {
  name "tpx_r2-12-47-2_tl_147";
  from "r2-12-47-2_tn_147";
  to "r2-12-47-2_tm_147";
  phases BS;
  length 30.0005;
  configuration "tcon_id_838_12";
}
object overhead_line {
  name "line_r2-12-47-2_ol_97";
  from "r2-12-47-2_node_138";
  to "r2-12-47-2_node_141";
  phases C;
  length 272.8250;
  configuration "lcon_id_64_C";
}
object triplex_line {
  name "tpx_r2-12-47-2_tl_144";
  from "r2-12-47-2_tn_144";
  to "r2-12-47-2_tm_144";
  phases CS;
  length 30.0005;
  configuration "tcon_id_838_12";
}
object overhead_line {
  name "line_r2-12-47-2_ol_98";
  from "r2-12-47-2_node_132";
  to "r2-12-47-2_node_139";
  phases A;
  length 215.6840;
  configuration "lcon_id_60_A";
}
object triplex_line {
  name "tpx_r2-12-47-2_tl_145";
  from "r2-12-47-2_tn_145";
  to "r2-12-47-2_tm_145";
  phases AS;
  length 30.0005;
  configuration "tcon_id_838_12";
}
object overhead_line {
  name "line_r2-12-47-2_ol_99";
  from "r2-12-47-2_node_2";
  to "r2-12-47-2_node_142";
  phases ABC;
  length 647.4419;
  configuration "lcon_id_66_ABC";
}
object triplex_line {
  name "tpx_r2-12-47-2_tl_142";
  from "r2-12-47-2_tn_142";
  to "r2-12-47-2_tm_142";
  phases CS;
  length 30.0005;
  configuration "tcon_id_838_12";
}
object triplex_line {
  name "tpx_r2-12-47-2_tl_143";
  from "r2-12-47-2_tn_143";
  to "r2-12-47-2_tm_143";
  phases CS;
  length 30.0005;
  configuration "tcon_id_838_12";
}
object overhead_line {
  name "line_r2-12-47-2_ol_93";
  from "r2-12-47-2_node_131";
  to "r2-12-47-2_node_136";
  phases A;
  length 115.1721;
  configuration "lcon_id_60_A";
}
object overhead_line {
  name "line_r2-12-47-2_ol_94";
  from "r2-12-47-2_node_132";
  to "r2-12-47-2_node_135";
  phases A;
  length 55.3910;
  configuration "lcon_id_60_A";
}
object overhead_line {
  name "line_r2-12-47-2_ol_95";
  from "r2-12-47-2_node_134";
  to "r2-12-47-2_node_77";
  phases C;
  length 485.6489;
  configuration "lcon_id_64_C";
}
object overhead_line {
  name "line_r2-12-47-2_ol_96";
  from "r2-12-47-2_node_134";
  to "r2-12-47-2_node_138";
  phases C;
  length 97.6718;
  configuration "lcon_id_64_C";
}
object overhead_line {
  name "line_r2-12-47-2_ol_90";
  from "r2-12-47-2_node_86";
  to "r2-12-47-2_node_13";
  phases B;
  length 622.1414;
  configuration "lcon_id_71_B";
}
object overhead_line {
  name "line_r2-12-47-2_ol_91";
  from "r2-12-47-2_node_130";
  to "r2-12-47-2_node_137";
  phases B;
  length 173.6532;
  configuration "lcon_id_71_B";
}
object overhead_line {
  name "line_r2-12-47-2_ol_92";
  from "r2-12-47-2_node_126";
  to "r2-12-47-2_node_133";
  phases B;
  length 444.1881;
  configuration "lcon_id_79_B";
}
object overhead_line {
  name "line_r2-12-47-2_ul_6";
  from "r2-12-47-2_node_105";
  to "r2-12-47-2_node_252";
  phases C;
  length 540.7299;
  configuration "lcon_id_70_C";
}
object overhead_line {
  name "line_r2-12-47-2_ul_7";
  from "r2-12-47-2_node_108";
  to "r2-12-47-2_node_107";
  phases B;
  length 407.0075;
  configuration "lcon_id_67_B";
}
object overhead_line {
  name "line_r2-12-47-2_ul_4";
  from "r2-12-47-2_node_96";
  to "r2-12-47-2_node_105";
  phases C;
  length 390.0871;
  configuration "lcon_id_96_C";
}
object overhead_line {
  name "line_r2-12-47-2_ul_5";
  from "r2-12-47-2_node_106";
  to "r2-12-47-2_node_251";
  phases B;
  length 1325.4143;
  configuration "lcon_id_67_B";
}
object overhead_line {
  name "line_r2-12-47-2_ul_2";
  from "r2-12-47-2_node_99";
  to "r2-12-47-2_node_95";
  phases C;
  length 985.4281;
  configuration "lcon_id_70_C";
}
object overhead_line {
  name "line_r2-12-47-2_ul_3";
  from "r2-12-47-2_node_98";
  to "r2-12-47-2_node_96";
  phases C;
  length 979.4979;
  configuration "lcon_id_70_C";
}
object overhead_line {
  name "line_r2-12-47-2_ul_1";
  from "r2-12-47-2_node_11";
  to "r2-12-47-2_node_1";
  phases ABC;
  length 2813.3215;
  configuration "lcon_id_69_ABC";
}
object triplex_line {
  name "tpx_r2-12-47-2_tl_140";
  from "r2-12-47-2_tn_140";
  to "r2-12-47-2_tm_140";
  phases CS;
  length 30.0005;
  configuration "tcon_id_838_12";
}
object triplex_line {
  name "tpx_r2-12-47-2_tl_141";
  from "r2-12-47-2_tn_141";
  to "r2-12-47-2_tm_141";
  phases BS;
  length 30.0005;
  configuration "tcon_id_838_12";
}
object overhead_line {
  name "line_r2-12-47-2_ul_8";
  from "r2-12-47-2_node_207";
  to "r2-12-47-2_node_48";
  phases B;
  length 138.9825;
  configuration "lcon_id_67_B";
}
object overhead_line {
  name "line_r2-12-47-2_ul_9";
  from "r2-12-47-2_node_244";
  to "r2-12-47-2_node_245";
  phases ABC;
  length 421.5077;
  configuration "lcon_id_69_ABC";
}
object triplex_line {
  name "tpx_r2-12-47-2_tl_137";
  from "r2-12-47-2_tn_137";
  to "r2-12-47-2_tm_137";
  phases CS;
  length 30.0005;
  configuration "tcon_id_838_12";
}
object triplex_line {
  name "tpx_r2-12-47-2_tl_138";
  from "r2-12-47-2_tn_138";
  to "r2-12-47-2_tm_138";
  phases AS;
  length 30.0005;
  configuration "tcon_id_838_12";
}
object triplex_line {
  name "tpx_r2-12-47-2_tl_135";
  from "r2-12-47-2_tn_135";
  to "r2-12-47-2_tm_135";
  phases BS;
  length 30.0005;
  configuration "tcon_id_838_12";
}
object triplex_line {
  name "tpx_r2-12-47-2_tl_136";
  from "r2-12-47-2_tn_136";
  to "r2-12-47-2_tm_136";
  phases CS;
  length 30.0005;
  configuration "tcon_id_838_12";
}
object triplex_line {
  name "tpx_r2-12-47-2_tl_133";
  from "r2-12-47-2_tn_133";
  to "r2-12-47-2_tm_133";
  phases AS;
  length 30.0005;
  configuration "tcon_id_838_12";
}
object triplex_line {
  name "tpx_r2-12-47-2_tl_134";
  from "r2-12-47-2_tn_134";
  to "r2-12-47-2_tm_134";
  phases BS;
  length 30.0005;
  configuration "tcon_id_838_12";
}
object triplex_line {
  name "tpx_r2-12-47-2_tl_131";
  from "r2-12-47-2_tn_131";
  to "r2-12-47-2_tm_131";
  phases AS;
  length 30.0005;
  configuration "tcon_id_838_12";
}
object triplex_line {
  name "tpx_r2-12-47-2_tl_132";
  from "r2-12-47-2_tn_132";
  to "r2-12-47-2_tm_132";
  phases BS;
  length 30.0005;
  configuration "tcon_id_838_12";
}
object triplex_line {
  name "tpx_r2-12-47-2_tl_139";
  from "r2-12-47-2_tn_139";
  to "r2-12-47-2_tm_139";
  phases BS;
  length 30.0005;
  configuration "tcon_id_838_12";
}
object triplex_line {
  name "tpx_r2-12-47-2_tl_173";
  from "r2-12-47-2_tn_173";
  to "r2-12-47-2_tm_173";
  phases BS;
  length 30.0005;
  configuration "tcon_id_838_12";
}
object triplex_line {
  name "tpx_r2-12-47-2_tl_174";
  from "r2-12-47-2_tn_174";
  to "r2-12-47-2_tm_174";
  phases CS;
  length 30.0005;
  configuration "tcon_id_838_12";
}
object triplex_line {
  name "tpx_r2-12-47-2_tl_171";
  from "r2-12-47-2_tn_171";
  to "r2-12-47-2_tm_171";
  phases AS;
  length 30.0005;
  configuration "tcon_id_838_12";
}
object triplex_line {
  name "tpx_r2-12-47-2_tl_172";
  from "r2-12-47-2_tn_172";
  to "r2-12-47-2_tm_172";
  phases AS;
  length 30.0005;
  configuration "tcon_id_838_12";
}
object triplex_line {
  name "tpx_r2-12-47-2_tl_21";
  from "r2-12-47-2_tn_21";
  to "r2-12-47-2_tm_21";
  phases CS;
  length 30.0005;
  configuration "tcon_id_838_12";
}
object triplex_line {
  name "tpx_r2-12-47-2_tl_170";
  from "r2-12-47-2_tn_170";
  to "r2-12-47-2_tm_170";
  phases AS;
  length 30.0005;
  configuration "tcon_id_838_12";
}
object triplex_line {
  name "tpx_r2-12-47-2_tl_22";
  from "r2-12-47-2_tn_22";
  to "r2-12-47-2_tm_22";
  phases AS;
  length 30.0005;
  configuration "tcon_id_838_12";
}
object triplex_line {
  name "tpx_r2-12-47-2_tl_20";
  from "r2-12-47-2_tn_20";
  to "r2-12-47-2_tm_20";
  phases BS;
  length 30.0005;
  configuration "tcon_id_838_12";
}
object overhead_line {
  name "line_r2-12-47-2_ol_79";
  from "r2-12-47-2_node_118";
  to "r2-12-47-2_node_120";
  phases B;
  length 181.7133;
  configuration "lcon_id_79_B";
}
object triplex_line {
  name "tpx_r2-12-47-2_tl_25";
  from "r2-12-47-2_tn_25";
  to "r2-12-47-2_tm_25";
  phases AS;
  length 30.0005;
  configuration "tcon_id_838_12";
}
object triplex_line {
  name "tpx_r2-12-47-2_tl_26";
  from "r2-12-47-2_tn_26";
  to "r2-12-47-2_tm_26";
  phases CS;
  length 30.0005;
  configuration "tcon_id_838_12";
}
object triplex_line {
  name "tpx_r2-12-47-2_tl_168";
  from "r2-12-47-2_tn_168";
  to "r2-12-47-2_tm_168";
  phases AS;
  length 30.0005;
  configuration "tcon_id_838_12";
}
object triplex_line {
  name "tpx_r2-12-47-2_tl_23";
  from "r2-12-47-2_tn_23";
  to "r2-12-47-2_tm_23";
  phases BS;
  length 30.0005;
  configuration "tcon_id_838_12";
}
object triplex_line {
  name "tpx_r2-12-47-2_tl_169";
  from "r2-12-47-2_tn_169";
  to "r2-12-47-2_tm_169";
  phases AS;
  length 30.0005;
  configuration "tcon_id_838_12";
}
object triplex_line {
  name "tpx_r2-12-47-2_tl_24";
  from "r2-12-47-2_tn_24";
  to "r2-12-47-2_tm_24";
  phases BS;
  length 30.0005;
  configuration "tcon_id_838_12";
}
object overhead_line {
  name "line_r2-12-47-2_ol_75";
  from "r2-12-47-2_node_114";
  to "r2-12-47-2_node_116";
  phases A;
  length 466.3985;
  configuration "lcon_id_62_A";
}
object triplex_line {
  name "tpx_r2-12-47-2_tl_166";
  from "r2-12-47-2_tn_166";
  to "r2-12-47-2_tm_166";
  phases CS;
  length 30.0005;
  configuration "tcon_id_838_12";
}
object triplex_line {
  name "tpx_r2-12-47-2_tl_29";
  from "r2-12-47-2_tn_29";
  to "r2-12-47-2_tm_29";
  phases BS;
  length 30.0005;
  configuration "tcon_id_838_12";
}
object overhead_line {
  name "line_r2-12-47-2_ol_76";
  from "r2-12-47-2_node_17";
  to "r2-12-47-2_node_111";
  phases ABC;
  length 865.0458;
  configuration "lcon_id_66_ABC";
}
object triplex_line {
  name "tpx_r2-12-47-2_tl_167";
  from "r2-12-47-2_tn_167";
  to "r2-12-47-2_tm_167";
  phases AS;
  length 30.0005;
  configuration "tcon_id_838_12";
}
object overhead_line {
  name "line_r2-12-47-2_ol_77";
  from "r2-12-47-2_node_14";
  to "r2-12-47-2_node_80";
  phases B;
  length 637.8117;
  configuration "lcon_id_97_B";
}
object triplex_line {
  name "tpx_r2-12-47-2_tl_164";
  from "r2-12-47-2_tn_164";
  to "r2-12-47-2_tm_164";
  phases CS;
  length 30.0005;
  configuration "tcon_id_838_12";
}
object triplex_line {
  name "tpx_r2-12-47-2_tl_27";
  from "r2-12-47-2_tn_27";
  to "r2-12-47-2_tm_27";
  phases AS;
  length 30.0005;
  configuration "tcon_id_838_12";
}
object overhead_line {
  name "line_r2-12-47-2_ol_78";
  from "r2-12-47-2_node_118";
  to "r2-12-47-2_node_119";
  phases B;
  length 105.6519;
  configuration "lcon_id_79_B";
}
object triplex_line {
  name "tpx_r2-12-47-2_tl_165";
  from "r2-12-47-2_tn_165";
  to "r2-12-47-2_tm_165";
  phases CS;
  length 30.0005;
  configuration "tcon_id_838_12";
}
object triplex_line {
  name "tpx_r2-12-47-2_tl_28";
  from "r2-12-47-2_tn_28";
  to "r2-12-47-2_tm_28";
  phases AS;
  length 30.0005;
  configuration "tcon_id_838_12";
}
object overhead_line {
  name "line_r2-12-47-2_ol_71";
  from "r2-12-47-2_node_112";
  to "r2-12-47-2_node_146";
  phases ABC;
  length 281.0751;
  configuration "lcon_id_81_ABC";
}
object overhead_line {
  name "line_r2-12-47-2_ol_72";
  from "r2-12-47-2_node_16";
  to "r2-12-47-2_node_17";
  phases ABC;
  length 282.2152;
  configuration "lcon_id_66_ABC";
}
object overhead_line {
  name "line_r2-12-47-2_ol_73";
  from "r2-12-47-2_node_248";
  to "r2-12-47-2_node_14";
  phases BC;
  length 563.1003;
  configuration "lcon_id_73_BC";
}
object overhead_line {
  name "line_r2-12-47-2_ol_74";
  from "r2-12-47-2_node_247";
  to "r2-12-47-2_node_115";
  phases A;
  length 926.4870;
  configuration "lcon_id_62_A";
}
object overhead_line {
  name "line_r2-12-47-2_ol_70";
  from "r2-12-47-2_node_111";
  to "r2-12-47-2_node_6";
  phases ABC;
  length 143.0526;
  configuration "lcon_id_66_ABC";
}
object triplex_line {
  name "tpx_r2-12-47-2_tl_162";
  from "r2-12-47-2_tn_162";
  to "r2-12-47-2_tm_162";
  phases AS;
  length 30.0005;
  configuration "tcon_id_838_12";
}
object triplex_line {
  name "tpx_r2-12-47-2_tl_163";
  from "r2-12-47-2_tn_163";
  to "r2-12-47-2_tm_163";
  phases CS;
  length 30.0005;
  configuration "tcon_id_838_12";
}
object triplex_line {
  name "tpx_r2-12-47-2_tl_160";
  from "r2-12-47-2_tn_160";
  to "r2-12-47-2_tm_160";
  phases CS;
  length 30.0005;
  configuration "tcon_id_838_12";
}
object triplex_line {
  name "tpx_r2-12-47-2_tl_161";
  from "r2-12-47-2_tn_161";
  to "r2-12-47-2_tm_161";
  phases CS;
  length 30.0005;
  configuration "tcon_id_838_12";
}
object triplex_line {
  name "tpx_r2-12-47-2_tl_10";
  from "r2-12-47-2_tn_10";
  to "r2-12-47-2_tm_10";
  phases BS;
  length 30.0005;
  configuration "tcon_id_838_12";
}
object triplex_line {
  name "tpx_r2-12-47-2_tl_11";
  from "r2-12-47-2_tn_11";
  to "r2-12-47-2_tm_11";
  phases CS;
  length 30.0005;
  configuration "tcon_id_838_12";
}
object triplex_line {
  name "tpx_r2-12-47-2_tl_14";
  from "r2-12-47-2_tn_14";
  to "r2-12-47-2_tm_14";
  phases BS;
  length 30.0005;
  configuration "tcon_id_838_12";
}
object triplex_line {
  name "tpx_r2-12-47-2_tl_159";
  from "r2-12-47-2_tn_159";
  to "r2-12-47-2_tm_159";
  phases CS;
  length 30.0005;
  configuration "tcon_id_838_12";
}
object triplex_line {
  name "tpx_r2-12-47-2_tl_15";
  from "r2-12-47-2_tn_15";
  to "r2-12-47-2_tm_15";
  phases CS;
  length 30.0005;
  configuration "tcon_id_838_12";
}
object triplex_line {
  name "tpx_r2-12-47-2_tl_12";
  from "r2-12-47-2_tn_12";
  to "r2-12-47-2_tm_12";
  phases CS;
  length 30.0005;
  configuration "tcon_id_838_12";
}
object triplex_line {
  name "tpx_r2-12-47-2_tl_157";
  from "r2-12-47-2_tn_157";
  to "r2-12-47-2_tm_157";
  phases AS;
  length 30.0005;
  configuration "tcon_id_838_12";
}
object triplex_line {
  name "tpx_r2-12-47-2_tl_13";
  from "r2-12-47-2_tn_13";
  to "r2-12-47-2_tm_13";
  phases BS;
  length 30.0005;
  configuration "tcon_id_838_12";
}
object triplex_line {
  name "tpx_r2-12-47-2_tl_158";
  from "r2-12-47-2_tn_158";
  to "r2-12-47-2_tm_158";
  phases BS;
  length 30.0005;
  configuration "tcon_id_838_12";
}
object overhead_line {
  name "line_r2-12-47-2_ol_86";
  from "r2-12-47-2_node_79";
  to "r2-12-47-2_node_86";
  phases B;
  length 262.3948;
  configuration "lcon_id_71_B";
}
object triplex_line {
  name "tpx_r2-12-47-2_tl_155";
  from "r2-12-47-2_tn_155";
  to "r2-12-47-2_tm_155";
  phases CS;
  length 30.0005;
  configuration "tcon_id_838_12";
}
object triplex_line {
  name "tpx_r2-12-47-2_tl_18";
  from "r2-12-47-2_tn_18";
  to "r2-12-47-2_tm_18";
  phases AS;
  length 30.0005;
  configuration "tcon_id_838_12";
}
object overhead_line {
  name "line_r2-12-47-2_ol_87";
  from "r2-12-47-2_node_121";
  to "r2-12-47-2_node_127";
  phases B;
  length 586.0007;
  configuration "lcon_id_71_B";
}
object triplex_line {
  name "tpx_r2-12-47-2_tl_156";
  from "r2-12-47-2_tn_156";
  to "r2-12-47-2_tm_156";
  phases AS;
  length 30.0005;
  configuration "tcon_id_838_12";
}
object triplex_line {
  name "tpx_r2-12-47-2_tl_19";
  from "r2-12-47-2_tn_19";
  to "r2-12-47-2_tm_19";
  phases AS;
  length 30.0005;
  configuration "tcon_id_838_12";
}
object overhead_line {
  name "line_r2-12-47-2_ol_88";
  from "r2-12-47-2_node_110";
  to "r2-12-47-2_node_38";
  phases ABC;
  length 288.7553;
  configuration "lcon_id_66_ABC";
}
object triplex_line {
  name "tpx_r2-12-47-2_tl_153";
  from "r2-12-47-2_tn_153";
  to "r2-12-47-2_tm_153";
  phases CS;
  length 30.0005;
  configuration "tcon_id_838_12";
}
object triplex_line {
  name "tpx_r2-12-47-2_tl_16";
  from "r2-12-47-2_tn_16";
  to "r2-12-47-2_tm_16";
  phases BS;
  length 30.0005;
  configuration "tcon_id_838_12";
}
object overhead_line {
  name "line_r2-12-47-2_ol_89";
  from "r2-12-47-2_node_128";
  to "r2-12-47-2_node_134";
  phases C;
  length 301.4655;
  configuration "lcon_id_64_C";
}
object triplex_line {
  name "tpx_r2-12-47-2_tl_154";
  from "r2-12-47-2_tn_154";
  to "r2-12-47-2_tm_154";
  phases AS;
  length 30.0005;
  configuration "tcon_id_838_12";
}
object triplex_line {
  name "tpx_r2-12-47-2_tl_17";
  from "r2-12-47-2_tn_17";
  to "r2-12-47-2_tm_17";
  phases CS;
  length 30.0005;
  configuration "tcon_id_838_12";
}
object overhead_line {
  name "line_r2-12-47-2_ol_82";
  from "r2-12-47-2_node_120";
  to "r2-12-47-2_node_79";
  phases B;
  length 168.7131;
  configuration "lcon_id_79_B";
}
object overhead_line {
  name "line_r2-12-47-2_ol_83";
  from "r2-12-47-2_node_120";
  to "r2-12-47-2_node_81";
  phases B;
  length 146.0727;
  configuration "lcon_id_71_B";
}
object overhead_line {
  name "line_r2-12-47-2_ol_84";
  from "r2-12-47-2_node_121";
  to "r2-12-47-2_node_125";
  phases B;
  length 496.4791;
  configuration "lcon_id_71_B";
}
object overhead_line {
  name "line_r2-12-47-2_ol_85";
  from "r2-12-47-2_node_83";
  to "r2-12-47-2_node_124";
  phases C;
  length 353.9565;
  configuration "lcon_id_85_C";
}
object overhead_line {
  name "line_r2-12-47-2_ol_80";
  from "r2-12-47-2_node_117";
  to "r2-12-47-2_node_83";
  phases C;
  length 689.9326;
  configuration "lcon_id_72_C";
}
object overhead_line {
  name "line_r2-12-47-2_ol_81";
  from "r2-12-47-2_node_117";
  to "r2-12-47-2_node_122";
  phases C;
  length 629.4115;
  configuration "lcon_id_72_C";
}
object triplex_line {
  name "tpx_r2-12-47-2_tl_104";
  from "r2-12-47-2_tn_104";
  to "r2-12-47-2_tm_104";
  phases CS;
  length 30.0005;
  configuration "tcon_id_838_12";
}
object triplex_line {
  name "tpx_r2-12-47-2_tl_105";
  from "r2-12-47-2_tn_105";
  to "r2-12-47-2_tm_105";
  phases CS;
  length 30.0005;
  configuration "tcon_id_838_12";
}
object triplex_line {
  name "tpx_r2-12-47-2_tl_102";
  from "r2-12-47-2_tn_102";
  to "r2-12-47-2_tm_102";
  phases BS;
  length 30.0005;
  configuration "tcon_id_838_12";
}
object triplex_line {
  name "tpx_r2-12-47-2_tl_103";
  from "r2-12-47-2_tn_103";
  to "r2-12-47-2_tm_103";
  phases BS;
  length 30.0005;
  configuration "tcon_id_838_12";
}
object triplex_line {
  name "tpx_r2-12-47-2_tl_100";
  from "r2-12-47-2_tn_100";
  to "r2-12-47-2_tm_100";
  phases BS;
  length 30.0005;
  configuration "tcon_id_838_12";
}
object triplex_line {
  name "tpx_r2-12-47-2_tl_101";
  from "r2-12-47-2_tn_101";
  to "r2-12-47-2_tm_101";
  phases CS;
  length 30.0005;
  configuration "tcon_id_838_12";
}
object triplex_line {
  name "tpx_r2-12-47-2_tl_108";
  from "r2-12-47-2_tn_108";
  to "r2-12-47-2_tm_108";
  phases BS;
  length 30.0005;
  configuration "tcon_id_838_12";
}
object triplex_line {
  name "tpx_r2-12-47-2_tl_109";
  from "r2-12-47-2_tn_109";
  to "r2-12-47-2_tm_109";
  phases BS;
  length 30.0005;
  configuration "tcon_id_838_12";
}
object triplex_line {
  name "tpx_r2-12-47-2_tl_106";
  from "r2-12-47-2_tn_106";
  to "r2-12-47-2_tm_106";
  phases BS;
  length 30.0005;
  configuration "tcon_id_838_12";
}
object triplex_line {
  name "tpx_r2-12-47-2_tl_107";
  from "r2-12-47-2_tn_107";
  to "r2-12-47-2_tm_107";
  phases CS;
  length 30.0005;
  configuration "tcon_id_838_12";
}
object triplex_line {
  name "tpx_r2-12-47-2_tl_130";
  from "r2-12-47-2_tn_130";
  to "r2-12-47-2_tm_130";
  phases CS;
  length 30.0005;
  configuration "tcon_id_838_12";
}
object triplex_line {
  name "tpx_r2-12-47-2_tl_126";
  from "r2-12-47-2_tn_126";
  to "r2-12-47-2_tm_126";
  phases BS;
  length 30.0005;
  configuration "tcon_id_838_12";
}
object triplex_line {
  name "tpx_r2-12-47-2_tl_127";
  from "r2-12-47-2_tn_127";
  to "r2-12-47-2_tm_127";
  phases CS;
  length 30.0005;
  configuration "tcon_id_838_12";
}
object triplex_line {
  name "tpx_r2-12-47-2_tl_124";
  from "r2-12-47-2_tn_124";
  to "r2-12-47-2_tm_124";
  phases CS;
  length 30.0005;
  configuration "tcon_id_838_12";
}
object triplex_line {
  name "tpx_r2-12-47-2_tl_125";
  from "r2-12-47-2_tn_125";
  to "r2-12-47-2_tm_125";
  phases CS;
  length 30.0005;
  configuration "tcon_id_838_12";
}
object triplex_line {
  name "tpx_r2-12-47-2_tl_122";
  from "r2-12-47-2_tn_122";
  to "r2-12-47-2_tm_122";
  phases BS;
  length 30.0005;
  configuration "tcon_id_838_12";
}
object triplex_line {
  name "tpx_r2-12-47-2_tl_123";
  from "r2-12-47-2_tn_123";
  to "r2-12-47-2_tm_123";
  phases BS;
  length 30.0005;
  configuration "tcon_id_838_12";
}
object triplex_line {
  name "tpx_r2-12-47-2_tl_120";
  from "r2-12-47-2_tn_120";
  to "r2-12-47-2_tm_120";
  phases BS;
  length 30.0005;
  configuration "tcon_id_838_12";
}
object triplex_line {
  name "tpx_r2-12-47-2_tl_121";
  from "r2-12-47-2_tn_121";
  to "r2-12-47-2_tm_121";
  phases CS;
  length 30.0005;
  configuration "tcon_id_838_12";
}
object triplex_line {
  name "tpx_r2-12-47-2_tl_128";
  from "r2-12-47-2_tn_128";
  to "r2-12-47-2_tm_128";
  phases AS;
  length 30.0005;
  configuration "tcon_id_838_12";
}
object triplex_line {
  name "tpx_r2-12-47-2_tl_129";
  from "r2-12-47-2_tn_129";
  to "r2-12-47-2_tm_129";
  phases BS;
  length 30.0005;
  configuration "tcon_id_838_12";
}
object overhead_line {
  name "line_r2-12-47-2_ul_11";
  from "r2-12-47-2_node_245";
  to "r2-12-47-2_node_11";
  phases ABC;
  length 424.8078;
  configuration "lcon_id_69_ABC";
}
object overhead_line {
  name "line_r2-12-47-2_ul_12";
  from "r2-12-47-2_node_245";
  to "r2-12-47-2_node_12";
  phases C;
  length 29.9505;
  configuration "lcon_id_70_C";
}
object triplex_line {
  name "tpx_r2-12-47-2_tl_115";
  from "r2-12-47-2_tn_115";
  to "r2-12-47-2_tm_115";
  phases BS;
  length 30.0005;
  configuration "tcon_id_838_12";
}
object triplex_line {
  name "tpx_r2-12-47-2_tl_116";
  from "r2-12-47-2_tn_116";
  to "r2-12-47-2_tm_116";
  phases AS;
  length 30.0005;
  configuration "tcon_id_838_12";
}
object triplex_line {
  name "tpx_r2-12-47-2_tl_113";
  from "r2-12-47-2_tn_113";
  to "r2-12-47-2_tm_113";
  phases BS;
  length 30.0005;
  configuration "tcon_id_838_12";
}
object triplex_line {
  name "tpx_r2-12-47-2_tl_114";
  from "r2-12-47-2_tn_114";
  to "r2-12-47-2_tm_114";
  phases BS;
  length 30.0005;
  configuration "tcon_id_838_12";
}
object triplex_line {
  name "tpx_r2-12-47-2_tl_111";
  from "r2-12-47-2_tn_111";
  to "r2-12-47-2_tm_111";
  phases BS;
  length 30.0005;
  configuration "tcon_id_838_12";
}
object triplex_line {
  name "tpx_r2-12-47-2_tl_112";
  from "r2-12-47-2_tn_112";
  to "r2-12-47-2_tm_112";
  phases CS;
  length 30.0005;
  configuration "tcon_id_838_12";
}
object triplex_line {
  name "tpx_r2-12-47-2_tl_110";
  from "r2-12-47-2_tn_110";
  to "r2-12-47-2_tm_110";
  phases AS;
  length 30.0005;
  configuration "tcon_id_838_12";
}
object triplex_line {
  name "tpx_r2-12-47-2_tl_119";
  from "r2-12-47-2_tn_119";
  to "r2-12-47-2_tm_119";
  phases AS;
  length 30.0005;
  configuration "tcon_id_838_12";
}
object triplex_line {
  name "tpx_r2-12-47-2_tl_117";
  from "r2-12-47-2_tn_117";
  to "r2-12-47-2_tm_117";
  phases AS;
  length 30.0005;
  configuration "tcon_id_838_12";
}
object triplex_line {
  name "tpx_r2-12-47-2_tl_118";
  from "r2-12-47-2_tn_118";
  to "r2-12-47-2_tm_118";
  phases AS;
  length 30.0005;
  configuration "tcon_id_838_12";
}
object overhead_line {
  name "line_r2-12-47-2_ul_10";
  from "r2-12-47-2_node_245";
  to "r2-12-47-2_node_8";
  phases B;
  length 30.1306;
  configuration "lcon_id_67_B";
}
object overhead_line {
  name "line_r2-12-47-2_ol_118";
  from "r2-12-47-2_node_32";
  to "r2-12-47-2_node_172";
  phases A;
  length 776.8542;
  configuration "lcon_id_60_A";
}
object overhead_line {
  name "line_r2-12-47-2_ol_119";
  from "r2-12-47-2_node_30";
  to "r2-12-47-2_node_162";
  phases B;
  length 482.0788;
  configuration "lcon_id_71_B";
}
object overhead_line {
  name "line_r2-12-47-2_ol_116";
  from "r2-12-47-2_node_152";
  to "r2-12-47-2_node_7";
  phases ABC;
  length 196.2036;
  configuration "lcon_id_66_ABC";
}
object overhead_line {
  name "line_r2-12-47-2_ol_117";
  from "r2-12-47-2_node_78";
  to "r2-12-47-2_node_156";
  phases C;
  length 611.8612;
  configuration "lcon_id_72_C";
}
object overhead_line {
  name "line_r2-12-47-2_ol_114";
  from "r2-12-47-2_node_150";
  to "r2-12-47-2_node_5";
  phases C;
  length 259.3248;
  configuration "lcon_id_65_C";
}
object overhead_line {
  name "line_r2-12-47-2_ol_115";
  from "r2-12-47-2_node_151";
  to "r2-12-47-2_node_31";
  phases B;
  length 118.5222;
  configuration "lcon_id_71_B";
}
object triplex_line {
  name "tpx_r2-12-47-2_tl_80";
  from "r2-12-47-2_tn_80";
  to "r2-12-47-2_tm_80";
  phases BS;
  length 30.0005;
  configuration "tcon_id_838_12";
}
object overhead_line {
  name "line_r2-12-47-2_ol_112";
  from "r2-12-47-2_node_149";
  to "r2-12-47-2_node_157";
  phases B;
  length 314.2958;
  configuration "lcon_id_79_B";
}
object overhead_line {
  name "line_r2-12-47-2_ol_113";
  from "r2-12-47-2_node_149";
  to "r2-12-47-2_node_158";
  phases B;
  length 328.0360;
  configuration "lcon_id_79_B";
}
object overhead_line {
  name "line_r2-12-47-2_ol_110";
  from "r2-12-47-2_node_146";
  to "r2-12-47-2_node_1462";
  phases ABC;
  length 457.5084;
  configuration "lcon_id_81_ABC";
}
object triplex_line {
  name "tpx_r2-12-47-2_tl_83";
  from "r2-12-47-2_tn_83";
  to "r2-12-47-2_tm_83";
  phases CS;
  length 30.0005;
  configuration "tcon_id_838_12";
}
object overhead_line {
  name "line_r2-12-47-2_ol_111";
  from "r2-12-47-2_node_131";
  to "r2-12-47-2_node_32";
  phases A;
  length 942.4773;
  configuration "lcon_id_60_A";
}
object triplex_line {
  name "tpx_r2-12-47-2_tl_84";
  from "r2-12-47-2_tn_84";
  to "r2-12-47-2_tm_84";
  phases BS;
  length 30.0005;
  configuration "tcon_id_838_12";
}
object triplex_line {
  name "tpx_r2-12-47-2_tl_81";
  from "r2-12-47-2_tn_81";
  to "r2-12-47-2_tm_81";
  phases CS;
  length 30.0005;
  configuration "tcon_id_838_12";
}
object triplex_line {
  name "tpx_r2-12-47-2_tl_82";
  from "r2-12-47-2_tn_82";
  to "r2-12-47-2_tm_82";
  phases CS;
  length 30.0005;
  configuration "tcon_id_838_12";
}
object overhead_line {
  name "line_r2-12-47-2_ol_17";
  from "r2-12-47-2_node_21";
  to "r2-12-47-2_node_61";
  phases A;
  length 262.7548;
  configuration "lcon_id_78_A";
}
object triplex_line {
  name "tpx_r2-12-47-2_tl_87";
  from "r2-12-47-2_tn_87";
  to "r2-12-47-2_tm_87";
  phases BS;
  length 30.0005;
  configuration "tcon_id_838_12";
}
object overhead_line {
  name "line_r2-12-47-2_ol_18";
  from "r2-12-47-2_node_22";
  to "r2-12-47-2_node_216";
  phases B;
  length 388.3871;
  configuration "lcon_id_71_B";
}
object triplex_line {
  name "tpx_r2-12-47-2_tl_88";
  from "r2-12-47-2_tn_88";
  to "r2-12-47-2_tm_88";
  phases AS;
  length 30.0005;
  configuration "tcon_id_838_12";
}
object overhead_line {
  name "line_r2-12-47-2_ol_19";
  from "r2-12-47-2_node_22";
  to "r2-12-47-2_node_214";
  phases B;
  length 150.1928;
  configuration "lcon_id_71_B";
}
object triplex_line {
  name "tpx_r2-12-47-2_tl_85";
  from "r2-12-47-2_tn_85";
  to "r2-12-47-2_tm_85";
  phases BS;
  length 30.0005;
  configuration "tcon_id_838_12";
}
object triplex_line {
...